Circuit: * D:\PacMan-Robot\301_Group_3_Analogue\LTSpice\301_model.asc

Direct Newton iteration for .op point succeeded.

Date: Tue Aug 13 13:03:48 2019
Total elapsed time: 0.410 seconds.

tnom = 27
temp = 27
method = modified trap
totiter = 74874
traniter = 74844
tranpoints = 18963
accept = 12828
rejected = 6135
matrix size = 23
fillins = 6
solver = Normal
Matrix Compiler1: 1.26 KB object code size  0.4/0.2/[0.1]
Matrix Compiler2: off  [0.2]/0.2/0.3

