Circuit: * E:\301\PacMan-Robot\301_Group_3_Analogue\LTSpice\301_model.asc

Direct Newton iteration for .op point succeeded.

Date: Tue Sep 03 15:47:47 2019
Total elapsed time: 1.979 seconds.

tnom = 27
temp = 27
method = modified trap
totiter = 59286
traniter = 59239
tranpoints = 15445
accept = 10586
rejected = 4859
matrix size = 24
fillins = 6
solver = Normal
Matrix Compiler1: 1.18 KB object code size  1.4/0.7/[0.3]
Matrix Compiler2: off  [0.8]/1.8/1.4

